dset ^mega_ENSO_monthly_1980_2017.dat
undef -999.
title  OUTPUT FROM WRF V3.1.1 MODEL
xdef   1 linear  101.00   2.00
ydef   1 linear    1.00   2.00
ZDEF   12 levels
 1
 2
 3
 4
 5
 6
 7
 8
 9
 10
 11
 12
tdef  10000 linear JAN1980      1yr 
VARS    1
mega               12  0  height (m)
ENDVARS
